data_VESTA_phase_1
_audit_creation_method         'generated by CrystalMaker X for macOS'
_cell_length_a                   3.905300(8)
_cell_length_b                   3.905300(8)
_cell_length_c                   7.965000(20)
_cell_angle_alpha               90.000000(0)
_cell_angle_beta                90.000000(0)
_cell_angle_gamma               90.000000(0)

_symmetry_space_group_name_H-M     'P 1'

loop_
_symmetry_equiv_pos_as_xyz
'+x,+y,+z'

loop_
_atom_site_label
_atom_site_type_symbol
_atom_site_occupancy
_atom_site_fract_x
_atom_site_fract_y
_atom_site_fract_z
_atom_site_U_iso_or_equiv
 Eu1  Eu 0.5  0.00000000(0)  0.00000000(0)  0.00000000(0)  0.01026
 Eu2  Eu 0.5  0.00000000(0)  0.00000000(0)  0.50000000(0)  0.01026
 O1  O 1.0  0.50000000(0)  0.00000000(0)  0.25000000(300000)  0.05066
 O2  O 1.0  0.00000000(0)  0.50000000(0)  0.25000000(400000)  0.07346
 O3  O 1.0  0.50000000(0)  0.50000000(0)  0.00000000(0)  0.07346
 O4  O 1.0  0.50000000(0)  0.50000000(0)  0.50000000(0)  0.05193
 O5  O 1.0  0.50000000(0)  0.00000000(0)  0.75000000(300000)  0.05066
 O6  O 1.0  0.00000000(0)  0.50000000(0)  0.75000000(400000)  0.07346
 Ta1  Ta 1.0  0.50000000(0)  0.50000000(0)  0.25000000(10000)  0.00797
 Ta1_1  Ta 1.0  0.50000000(0)  0.50000000(0)  0.75000000(10000)  0.00797

